sisyphean-power-and-light/network/results/scenarios/high_der_2030/ev_loads.dss
! Scenario EV Charging Loads

New Load.ev_XFMR-000001 bus1=bus_XFMR-000001_sec phases=1 kv=0.24 kw=687.80 pf=0.98
New Load.ev_XFMR-000006 bus1=bus_XFMR-000006_sec phases=1 kv=0.24 kw=36.40 pf=0.98
New Load.ev_XFMR-000007 bus1=bus_XFMR-000007_sec phases=1 kv=0.24 kw=1441.40 pf=0.98
New Load.ev_XFMR-000014 bus1=bus_XFMR-000014_sec phases=1 kv=0.24 kw=154.00 pf=0.98
New Load.ev_XFMR-000016 bus1=bus_XFMR-000016_sec phases=1 kv=0.24 kw=253.00 pf=0.98
New Load.ev_XFMR-000021 bus1=bus_XFMR-000021_sec phases=1 kv=0.24 kw=33.60 pf=0.98
New Load.ev_XFMR-000029 bus1=bus_XFMR-000029_sec phases=1 kv=0.24 kw=425.50 pf=0.98
New Load.ev_XFMR-000034 bus1=bus_XFMR-000034_sec phases=1 kv=0.24 kw=236.60 pf=0.98
New Load.ev_XFMR-000036 bus1=bus_XFMR-000036_sec phases=1 kv=0.24 kw=287.50 pf=0.98
New Load.ev_XFMR-000037 bus1=bus_XFMR-000037_sec phases=1 kv=0.24 kw=823.20 pf=0.98
New Load.ev_XFMR-000039 bus1=bus_XFMR-000039_sec phases=1 kv=0.24 kw=441.60 pf=0.98
New Load.ev_XFMR-000041 bus1=bus_XFMR-000041_sec phases=1 kv=0.24 kw=26.60 pf=0.98
New Load.ev_XFMR-000048 bus1=bus_XFMR-000048_sec phases=1 kv=0.24 kw=621.00 pf=0.98
New Load.ev_XFMR-000049 bus1=bus_XFMR-000049_sec phases=1 kv=0.24 kw=431.20 pf=0.98
New Load.ev_XFMR-000050 bus1=bus_XFMR-000050_sec phases=1 kv=0.24 kw=322.00 pf=0.98
New Load.ev_XFMR-000051 bus1=bus_XFMR-000051_sec phases=1 kv=0.24 kw=33.60 pf=0.98
New Load.ev_XFMR-000052 bus1=bus_XFMR-000052_sec phases=1 kv=0.24 kw=30.80 pf=0.98
New Load.ev_XFMR-000055 bus1=bus_XFMR-000055_sec phases=1 kv=0.24 kw=506.90 pf=0.98
New Load.ev_XFMR-000061 bus1=bus_XFMR-000061_sec phases=1 kv=0.24 kw=32.20 pf=0.98
New Load.ev_XFMR-000064 bus1=bus_XFMR-000064_sec phases=1 kv=0.24 kw=307.20 pf=0.98
New Load.ev_XFMR-000065 bus1=bus_XFMR-000065_sec phases=1 kv=0.24 kw=310.50 pf=0.98
New Load.ev_XFMR-000066 bus1=bus_XFMR-000066_sec phases=1 kv=0.24 kw=494.50 pf=0.98
New Load.ev_XFMR-000068 bus1=bus_XFMR-000068_sec phases=1 kv=0.24 kw=622.60 pf=0.98
New Load.ev_XFMR-000076 bus1=bus_XFMR-000076_sec phases=1 kv=0.24 kw=310.50 pf=0.98
New Load.ev_XFMR-000077 bus1=bus_XFMR-000077_sec phases=1 kv=0.24 kw=841.50 pf=0.98
New Load.ev_XFMR-000079 bus1=bus_XFMR-000079_sec phases=1 kv=0.24 kw=364.80 pf=0.98
New Load.ev_XFMR-000081 bus1=bus_XFMR-000081_sec phases=1 kv=0.24 kw=760.20 pf=0.98
New Load.ev_XFMR-000082 bus1=bus_XFMR-000082_sec phases=1 kv=0.24 kw=218.50 pf=0.98
New Load.ev_XFMR-000084 bus1=bus_XFMR-000084_sec phases=1 kv=0.24 kw=3450.00 pf=0.98
New Load.ev_XFMR-000086 bus1=bus_XFMR-000086_sec phases=1 kv=0.24 kw=238.70 pf=0.98
New Load.ev_XFMR-000090 bus1=bus_XFMR-000090_sec phases=1 kv=0.24 kw=748.80 pf=0.98
New Load.ev_XFMR-000092 bus1=bus_XFMR-000092_sec phases=1 kv=0.24 kw=29.40 pf=0.98
New Load.ev_XFMR-000094 bus1=bus_XFMR-000094_sec phases=1 kv=0.24 kw=379.50 pf=0.98
New Load.ev_XFMR-000096 bus1=bus_XFMR-000096_sec phases=1 kv=0.24 kw=207.00 pf=0.98
New Load.ev_XFMR-000097 bus1=bus_XFMR-000097_sec phases=1 kv=0.24 kw=37.80 pf=0.98
New Load.ev_XFMR-000102 bus1=bus_XFMR-000102_sec phases=1 kv=0.24 kw=241.50 pf=0.98
New Load.ev_XFMR-000104 bus1=bus_XFMR-000104_sec phases=1 kv=0.24 kw=1150.00 pf=0.98
New Load.ev_XFMR-000108 bus1=bus_XFMR-000108_sec phases=1 kv=0.24 kw=44.80 pf=0.98
New Load.ev_XFMR-000109 bus1=bus_XFMR-000109_sec phases=1 kv=0.24 kw=480.00 pf=0.98
New Load.ev_XFMR-000112 bus1=bus_XFMR-000112_sec phases=1 kv=0.24 kw=207.00 pf=0.98
New Load.ev_XFMR-000117 bus1=bus_XFMR-000117_sec phases=1 kv=0.24 kw=1017.60 pf=0.98
New Load.ev_XFMR-000120 bus1=bus_XFMR-000120_sec phases=1 kv=0.24 kw=299.00 pf=0.98
New Load.ev_XFMR-000122 bus1=bus_XFMR-000122_sec phases=1 kv=0.24 kw=517.50 pf=0.98
New Load.ev_XFMR-000125 bus1=bus_XFMR-000125_sec phases=1 kv=0.24 kw=310.50 pf=0.98
New Load.ev_XFMR-000126 bus1=bus_XFMR-000126_sec phases=1 kv=0.24 kw=537.60 pf=0.98
New Load.ev_XFMR-000130 bus1=bus_XFMR-000130_sec phases=1 kv=0.24 kw=441.60 pf=0.98
New Load.ev_XFMR-000133 bus1=bus_XFMR-000133_sec phases=1 kv=0.24 kw=534.30 pf=0.98
New Load.ev_XFMR-000134 bus1=bus_XFMR-000134_sec phases=1 kv=0.24 kw=253.00 pf=0.98
New Load.ev_XFMR-000140 bus1=bus_XFMR-000140_sec phases=1 kv=0.24 kw=39.20 pf=0.98
New Load.ev_XFMR-000141 bus1=bus_XFMR-000141_sec phases=1 kv=0.24 kw=676.40 pf=0.98
New Load.ev_XFMR-000161 bus1=bus_XFMR-000161_sec phases=1 kv=0.24 kw=92.40 pf=0.98
New Load.ev_XFMR-000163 bus1=bus_XFMR-000163_sec phases=1 kv=0.24 kw=299.00 pf=0.98
New Load.ev_XFMR-000164 bus1=bus_XFMR-000164_sec phases=1 kv=0.24 kw=154.00 pf=0.98
New Load.ev_XFMR-000165 bus1=bus_XFMR-000165_sec phases=1 kv=0.24 kw=28.00 pf=0.98
New Load.ev_XFMR-000166 bus1=bus_XFMR-000166_sec phases=1 kv=0.24 kw=36.40 pf=0.98
New Load.ev_XFMR-000169 bus1=bus_XFMR-000169_sec phases=1 kv=0.24 kw=35.00 pf=0.98
New Load.ev_XFMR-000174 bus1=bus_XFMR-000174_sec phases=1 kv=0.24 kw=268.80 pf=0.98
New Load.ev_XFMR-000175 bus1=bus_XFMR-000175_sec phases=1 kv=0.24 kw=522.60 pf=0.98
New Load.ev_XFMR-000176 bus1=bus_XFMR-000176_sec phases=1 kv=0.24 kw=565.00 pf=0.98
New Load.ev_XFMR-000178 bus1=bus_XFMR-000178_sec phases=1 kv=0.24 kw=702.40 pf=0.98
New Load.ev_XFMR-000179 bus1=bus_XFMR-000179_sec phases=1 kv=0.24 kw=6575.20 pf=0.98
New Load.ev_XFMR-000181 bus1=bus_XFMR-000181_sec phases=1 kv=0.24 kw=60.20 pf=0.98
New Load.ev_XFMR-000185 bus1=bus_XFMR-000185_sec phases=1 kv=0.24 kw=184.80 pf=0.98
New Load.ev_XFMR-000186 bus1=bus_XFMR-000186_sec phases=1 kv=0.24 kw=556.80 pf=0.98
New Load.ev_XFMR-000195 bus1=bus_XFMR-000195_sec phases=1 kv=0.24 kw=307.20 pf=0.98
New Load.ev_XFMR-000198 bus1=bus_XFMR-000198_sec phases=1 kv=0.24 kw=184.80 pf=0.98
New Load.ev_XFMR-000203 bus1=bus_XFMR-000203_sec phases=1 kv=0.24 kw=231.00 pf=0.98
New Load.ev_XFMR-000207 bus1=bus_XFMR-000207_sec phases=1 kv=0.24 kw=26.60 pf=0.98
New Load.ev_XFMR-000213 bus1=bus_XFMR-000213_sec phases=1 kv=0.24 kw=1564.80 pf=0.98
New Load.ev_XFMR-000216 bus1=bus_XFMR-000216_sec phases=1 kv=0.24 kw=138.60 pf=0.98
New Load.ev_XFMR-000217 bus1=bus_XFMR-000217_sec phases=1 kv=0.24 kw=618.00 pf=0.98
New Load.ev_XFMR-000219 bus1=bus_XFMR-000219_sec phases=1 kv=0.24 kw=431.20 pf=0.98
New Load.ev_XFMR-000221 bus1=bus_XFMR-000221_sec phases=1 kv=0.24 kw=713.80 pf=0.98
New Load.ev_XFMR-000223 bus1=bus_XFMR-000223_sec phases=1 kv=0.24 kw=391.00 pf=0.98
New Load.ev_XFMR-000228 bus1=bus_XFMR-000228_sec phases=1 kv=0.24 kw=177.10 pf=0.98
New Load.ev_XFMR-000229 bus1=bus_XFMR-000229_sec phases=1 kv=0.24 kw=230.00 pf=0.98
New Load.ev_XFMR-000230 bus1=bus_XFMR-000230_sec phases=1 kv=0.24 kw=7706.50 pf=0.98
New Load.ev_XFMR-000233 bus1=bus_XFMR-000233_sec phases=1 kv=0.24 kw=47.60 pf=0.98
New Load.ev_XFMR-000236 bus1=bus_XFMR-000236_sec phases=1 kv=0.24 kw=825.60 pf=0.98
New Load.ev_XFMR-000239 bus1=bus_XFMR-000239_sec phases=1 kv=0.24 kw=603.60 pf=0.98
New Load.ev_XFMR-000240 bus1=bus_XFMR-000240_sec phases=1 kv=0.24 kw=561.10 pf=0.98
New Load.ev_XFMR-000241 bus1=bus_XFMR-000241_sec phases=1 kv=0.24 kw=177.10 pf=0.98
New Load.ev_XFMR-000243 bus1=bus_XFMR-000243_sec phases=1 kv=0.24 kw=537.60 pf=0.98
New Load.ev_XFMR-000245 bus1=bus_XFMR-000245_sec phases=1 kv=0.24 kw=356.50 pf=0.98
New Load.ev_XFMR-000248 bus1=bus_XFMR-000248_sec phases=1 kv=0.24 kw=35.00 pf=0.98
New Load.ev_XFMR-000249 bus1=bus_XFMR-000249_sec phases=1 kv=0.24 kw=333.50 pf=0.98
New Load.ev_XFMR-000251 bus1=bus_XFMR-000251_sec phases=1 kv=0.24 kw=161.70 pf=0.98
New Load.ev_XFMR-000252 bus1=bus_XFMR-000252_sec phases=1 kv=0.24 kw=480.00 pf=0.98
New Load.ev_XFMR-000257 bus1=bus_XFMR-000257_sec phases=1 kv=0.24 kw=441.60 pf=0.98
New Load.ev_XFMR-000260 bus1=bus_XFMR-000260_sec phases=1 kv=0.24 kw=480.10 pf=0.98
New Load.ev_XFMR-000266 bus1=bus_XFMR-000266_sec phases=1 kv=0.24 kw=270.90 pf=0.98
New Load.ev_XFMR-000267 bus1=bus_XFMR-000267_sec phases=1 kv=0.24 kw=1053.70 pf=0.98
New Load.ev_XFMR-000268 bus1=bus_XFMR-000268_sec phases=1 kv=0.24 kw=3150.00 pf=0.98
New Load.ev_XFMR-000272 bus1=bus_XFMR-000272_sec phases=1 kv=0.24 kw=299.00 pf=0.98
New Load.ev_XFMR-000273 bus1=bus_XFMR-000273_sec phases=1 kv=0.24 kw=230.00 pf=0.98
New Load.ev_XFMR-000274 bus1=bus_XFMR-000274_sec phases=1 kv=0.24 kw=794.40 pf=0.98
New Load.ev_XFMR-000275 bus1=bus_XFMR-000275_sec phases=1 kv=0.24 kw=568.70 pf=0.98
New Load.ev_XFMR-000289 bus1=bus_XFMR-000289_sec phases=1 kv=0.24 kw=254.10 pf=0.98
New Load.ev_XFMR-000292 bus1=bus_XFMR-000292_sec phases=1 kv=0.24 kw=403.20 pf=0.98
New Load.ev_XFMR-000293 bus1=bus_XFMR-000293_sec phases=1 kv=0.24 kw=43.40 pf=0.98
New Load.ev_XFMR-000294 bus1=bus_XFMR-000294_sec phases=1 kv=0.24 kw=499.20 pf=0.98
New Load.ev_XFMR-000297 bus1=bus_XFMR-000297_sec phases=1 kv=0.24 kw=614.40 pf=0.98
New Load.ev_XFMR-000305 bus1=bus_XFMR-000305_sec phases=1 kv=0.24 kw=184.80 pf=0.98
New Load.ev_XFMR-000306 bus1=bus_XFMR-000306_sec phases=1 kv=0.24 kw=50.40 pf=0.98
New Load.ev_XFMR-000310 bus1=bus_XFMR-000310_sec phases=1 kv=0.24 kw=37.80 pf=0.98
New Load.ev_XFMR-000315 bus1=bus_XFMR-000315_sec phases=1 kv=0.24 kw=391.00 pf=0.98
New Load.ev_XFMR-000317 bus1=bus_XFMR-000317_sec phases=1 kv=0.24 kw=403.20 pf=0.98
New Load.ev_XFMR-000323 bus1=bus_XFMR-000323_sec phases=1 kv=0.24 kw=299.00 pf=0.98
New Load.ev_XFMR-000327 bus1=bus_XFMR-000327_sec phases=1 kv=0.24 kw=803.10 pf=0.98
New Load.ev_XFMR-000328 bus1=bus_XFMR-000328_sec phases=1 kv=0.24 kw=778.90 pf=0.98
New Load.ev_XFMR-000329 bus1=bus_XFMR-000329_sec phases=1 kv=0.24 kw=273.70 pf=0.98
New Load.ev_XFMR-000332 bus1=bus_XFMR-000332_sec phases=1 kv=0.24 kw=537.60 pf=0.98
New Load.ev_XFMR-000338 bus1=bus_XFMR-000338_sec phases=1 kv=0.24 kw=326.40 pf=0.98
New Load.ev_XFMR-000339 bus1=bus_XFMR-000339_sec phases=1 kv=0.24 kw=42.00 pf=0.98
New Load.ev_XFMR-000340 bus1=bus_XFMR-000340_sec phases=1 kv=0.24 kw=53.20 pf=0.98
New Load.ev_XFMR-000342 bus1=bus_XFMR-000342_sec phases=1 kv=0.24 kw=39.20 pf=0.98
New Load.ev_XFMR-000345 bus1=bus_XFMR-000345_sec phases=1 kv=0.24 kw=36.40 pf=0.98
New Load.ev_XFMR-000347 bus1=bus_XFMR-000347_sec phases=1 kv=0.24 kw=4800.00 pf=0.98
New Load.ev_XFMR-000349 bus1=bus_XFMR-000349_sec phases=1 kv=0.24 kw=422.40 pf=0.98
New Load.ev_XFMR-000350 bus1=bus_XFMR-000350_sec phases=1 kv=0.24 kw=192.50 pf=0.98
New Load.ev_XFMR-000353 bus1=bus_XFMR-000353_sec phases=1 kv=0.24 kw=2850.00 pf=0.98
New Load.ev_XFMR-000354 bus1=bus_XFMR-000354_sec phases=1 kv=0.24 kw=518.40 pf=0.98
New Load.ev_XFMR-000355 bus1=bus_XFMR-000355_sec phases=1 kv=0.24 kw=299.00 pf=0.98
New Load.ev_XFMR-000360 bus1=bus_XFMR-000360_sec phases=1 kv=0.24 kw=276.00 pf=0.98
New Load.ev_XFMR-000362 bus1=bus_XFMR-000362_sec phases=1 kv=0.24 kw=384.00 pf=0.98
New Load.ev_XFMR-000365 bus1=bus_XFMR-000365_sec phases=1 kv=0.24 kw=37.80 pf=0.98
New Load.ev_XFMR-000367 bus1=bus_XFMR-000367_sec phases=1 kv=0.24 kw=215.60 pf=0.98
New Load.ev_XFMR-000369 bus1=bus_XFMR-000369_sec phases=1 kv=0.24 kw=326.40 pf=0.98
New Load.ev_XFMR-000372 bus1=bus_XFMR-000372_sec phases=1 kv=0.24 kw=537.60 pf=0.98
New Load.ev_XFMR-000373 bus1=bus_XFMR-000373_sec phases=1 kv=0.24 kw=441.60 pf=0.98
New Load.ev_XFMR-000374 bus1=bus_XFMR-000374_sec phases=1 kv=0.24 kw=384.00 pf=0.98
New Load.ev_XFMR-000376 bus1=bus_XFMR-000376_sec phases=1 kv=0.24 kw=33.60 pf=0.98
New Load.ev_XFMR-000378 bus1=bus_XFMR-000378_sec phases=1 kv=0.24 kw=75.60 pf=0.98
New Load.ev_XFMR-000379 bus1=bus_XFMR-000379_sec phases=1 kv=0.24 kw=33.60 pf=0.98
New Load.ev_XFMR-000382 bus1=bus_XFMR-000382_sec phases=1 kv=0.24 kw=23.80 pf=0.98
New Load.ev_XFMR-000386 bus1=bus_XFMR-000386_sec phases=1 kv=0.24 kw=30.80 pf=0.98
New Load.ev_XFMR-000391 bus1=bus_XFMR-000391_sec phases=1 kv=0.24 kw=61.60 pf=0.98
New Load.ev_XFMR-000393 bus1=bus_XFMR-000393_sec phases=1 kv=0.24 kw=29.40 pf=0.98
New Load.ev_XFMR-000396 bus1=bus_XFMR-000396_sec phases=1 kv=0.24 kw=299.00 pf=0.98
New Load.ev_XFMR-000398 bus1=bus_XFMR-000398_sec phases=1 kv=0.24 kw=11900.00 pf=0.98
New Load.ev_XFMR-000400 bus1=bus_XFMR-000400_sec phases=1 kv=0.24 kw=460.80 pf=0.98
New Load.ev_XFMR-000401 bus1=bus_XFMR-000401_sec phases=1 kv=0.24 kw=3861.80 pf=0.98
New Load.ev_XFMR-000402 bus1=bus_XFMR-000402_sec phases=1 kv=0.24 kw=480.00 pf=0.98
New Load.ev_XFMR-000409 bus1=bus_XFMR-000409_sec phases=1 kv=0.24 kw=130.90 pf=0.98
New Load.ev_XFMR-000411 bus1=bus_XFMR-000411_sec phases=1 kv=0.24 kw=39.20 pf=0.98
New Load.ev_XFMR-000412 bus1=bus_XFMR-000412_sec phases=1 kv=0.24 kw=29.40 pf=0.98
New Load.ev_XFMR-000415 bus1=bus_XFMR-000415_sec phases=1 kv=0.24 kw=33.60 pf=0.98
New Load.ev_XFMR-000417 bus1=bus_XFMR-000417_sec phases=1 kv=0.24 kw=22.40 pf=0.98
New Load.ev_XFMR-000419 bus1=bus_XFMR-000419_sec phases=1 kv=0.24 kw=1400.00 pf=0.98
New Load.ev_XFMR-000423 bus1=bus_XFMR-000423_sec phases=1 kv=0.24 kw=241.50 pf=0.98
New Load.ev_XFMR-000424 bus1=bus_XFMR-000424_sec phases=1 kv=0.24 kw=966.80 pf=0.98
New Load.ev_XFMR-000428 bus1=bus_XFMR-000428_sec phases=1 kv=0.24 kw=4350.00 pf=0.98
New Load.ev_XFMR-000432 bus1=bus_XFMR-000432_sec phases=1 kv=0.24 kw=663.90 pf=0.98
New Load.ev_XFMR-000436 bus1=bus_XFMR-000436_sec phases=1 kv=0.24 kw=480.00 pf=0.98
New Load.ev_XFMR-000438 bus1=bus_XFMR-000438_sec phases=1 kv=0.24 kw=5625.20 pf=0.98
New Load.ev_XFMR-000446 bus1=bus_XFMR-000446_sec phases=1 kv=0.24 kw=242.00 pf=0.98
New Load.ev_XFMR-000448 bus1=bus_XFMR-000448_sec phases=1 kv=0.24 kw=326.40 pf=0.98
New Load.ev_XFMR-000450 bus1=bus_XFMR-000450_sec phases=1 kv=0.24 kw=195.50 pf=0.98
New Load.ev_XFMR-000452 bus1=bus_XFMR-000452_sec phases=1 kv=0.24 kw=207.90 pf=0.98
New Load.ev_XFMR-000455 bus1=bus_XFMR-000455_sec phases=1 kv=0.24 kw=37.80 pf=0.98
New Load.ev_XFMR-000457 bus1=bus_XFMR-000457_sec phases=1 kv=0.24 kw=47.60 pf=0.98
New Load.ev_XFMR-000463 bus1=bus_XFMR-000463_sec phases=1 kv=0.24 kw=1017.60 pf=0.98
New Load.ev_XFMR-000466 bus1=bus_XFMR-000466_sec phases=1 kv=0.24 kw=737.20 pf=0.98
New Load.ev_XFMR-000467 bus1=bus_XFMR-000467_sec phases=1 kv=0.24 kw=1492.50 pf=0.98
New Load.ev_XFMR-000471 bus1=bus_XFMR-000471_sec phases=1 kv=0.24 kw=161.70 pf=0.98
New Load.ev_XFMR-000473 bus1=bus_XFMR-000473_sec phases=1 kv=0.24 kw=177.10 pf=0.98
New Load.ev_XFMR-000475 bus1=bus_XFMR-000475_sec phases=1 kv=0.24 kw=500.00 pf=0.98
New Load.ev_XFMR-000476 bus1=bus_XFMR-000476_sec phases=1 kv=0.24 kw=295.40 pf=0.98
New Load.ev_XFMR-000477 bus1=bus_XFMR-000477_sec phases=1 kv=0.24 kw=238.70 pf=0.98
New Load.ev_XFMR-000480 bus1=bus_XFMR-000480_sec phases=1 kv=0.24 kw=430.50 pf=0.98
New Load.ev_XFMR-000481 bus1=bus_XFMR-000481_sec phases=1 kv=0.24 kw=65.80 pf=0.98
New Load.ev_XFMR-000484 bus1=bus_XFMR-000484_sec phases=1 kv=0.24 kw=950.00 pf=0.98
New Load.ev_XFMR-000485 bus1=bus_XFMR-000485_sec phases=1 kv=0.24 kw=460.80 pf=0.98
New Load.ev_XFMR-000488 bus1=bus_XFMR-000488_sec phases=1 kv=0.24 kw=740.70 pf=0.98
